10
Optimized geometry from PySCF
O 0.000472 -2.542501 0.000615
C 0.000018 -0.239490 0.000334
C 2.463393 1.320213 -0.000259
C -2.463970 1.319243 -0.000281
H 2.539615 2.518664 -1.665659
H 2.535586 2.527027 1.659244
H 4.091607 0.073707 0.004743
H -4.091695 0.072098 0.004732
H -2.540655 2.517641 -1.665698
H -2.536638 2.526048 1.659206
